96
# CELL(abcABC):   19.84024    19.84024    19.84024    90.00000    90.00000    90.00000  cell{atomic_unit}  Traj: positions{angstrom} Step:      100000  Bead:       0
       O  1.78810e+00 -1.63650e+01 -8.47800e+00
       H  1.05600e+00 -1.60479e+01 -7.98552e+00
       H  2.46183e+00 -1.63890e+01 -7.79677e+00
       O -4.24311e+00  1.46822e+00 -1.49593e+00
       H -4.58497e+00  2.06972e+00 -2.18391e+00
       H -4.30632e+00  1.93346e+00 -6.50826e-01
       O -1.08767e+01 -1.59953e+01  3.93491e+00
       H -1.15003e+01 -1.61651e+01  3.27550e+00
       H -1.11687e+01 -1.53126e+01  4.49639e+00
       O -9.80341e+00  1.12132e+01  3.61818e+00
       H -9.66244e+00  1.08840e+01  4.50907e+00
       H -9.53565e+00  1.06104e+01  3.00381e+00
       O -5.28397e+00  2.28342e+00  1.30414e+00
       H -5.60780e+00  2.72108e+00  2.09261e+00
       H -5.19572e+00  1.41362e+00  1.63146e+00
       O  3.06148e+00  1.35963e+01  8.97016e+00
       H  2.19865e+00  1.40313e+01  9.01170e+00
       H  2.94042e+00  1.27831e+01  8.47097e+00
       O -1.41711e+00  1.01896e+01 -4.16656e+00
       H -8.15039e-01  9.54195e+00 -3.71844e+00
       H -1.88423e+00  9.61599e+00 -4.78948e+00
       O -5.15129e+00  3.68532e+00 -3.41356e+00
       H -6.11086e+00  3.81129e+00 -3.41578e+00
       H -4.95264e+00  3.94209e+00 -4.28879e+00
       O -9.20255e+00  9.69073e+00  6.34613e+00
       H -8.79309e+00  9.08678e+00  6.94192e+00
       H -8.80633e+00  1.05629e+01  6.56819e+00
       O -2.32554e+00  3.82678e+00 -8.31308e+00
       H -2.19928e+00  2.84811e+00 -8.18562e+00
       H -2.41951e+00  3.93457e+00 -9.23046e+00
       O  8.97575e+00 -7.75279e+00  1.77913e+01
       H  8.85076e+00 -8.64478e+00  1.79947e+01
       H  8.06867e+00 -7.38668e+00  1.78111e+01
       O -2.42303e+00 -1.25522e+01  1.44398e+01
       H -1.80336e+00 -1.28572e+01  1.37580e+01
       H -2.80728e+00 -1.33157e+01  1.49177e+01
       O  8.81586e-02 -1.27503e+00 -2.86298e-01
       H  1.04120e+00 -1.27389e+00 -2.06593e-01
       H -2.16166e-02 -4.34904e-01 -6.65049e-01
       O  6.28869e+00  5.01860e+00  4.54079e+00
       H  6.52020e+00  4.77033e+00  3.66570e+00
       H  5.38861e+00  5.15669e+00  4.60775e+00
       O  2.35972e+01  8.27120e+00  4.13670e+00
       H  2.34228e+01  7.41501e+00  4.55195e+00
       H  2.35243e+01  8.83092e+00  4.87139e+00
       O  3.25669e+00  1.26564e+00  6.04236e+00
       H  3.99364e+00  1.69856e+00  5.72371e+00
       H  2.52985e+00  1.49329e+00  5.47471e+00
       O -3.08364e+00  1.92570e+01  4.62818e-01
       H -2.37697e+00  1.98615e+01  2.89636e-01
       H -3.42266e+00  1.96424e+01  1.26977e+00
       O  8.55852e+00  5.81495e+00  1.76730e+01
       H  8.84838e+00  5.40244e+00  1.84778e+01
       H  7.88887e+00  5.27947e+00  1.72797e+01
       O  7.69659e-01  3.02996e+00 -4.88651e+00
       H  6.51809e-01  3.17429e+00 -5.81251e+00
       H -1.04377e-01  3.01756e+00 -4.58317e+00
       O  1.52718e+01 -4.07468e+00  2.25945e+00
       H  1.48307e+01 -3.27543e+00  2.46043e+00
       H  1.51434e+01 -4.09202e+00  1.31669e+00
       O -5.38897e+00 -5.47880e+00 -5.37955e-01
       H -5.36918e+00 -5.51261e+00 -1.53088e+00
       H -5.90609e+00 -6.27130e+00 -3.25723e-01
       O  1.08987e+01  4.32640e+00 -1.37601e+00
       H  1.04214e+01  4.55692e+00 -5.81566e-01
       H  1.04027e+01  3.67281e+00 -1.92247e+00
       O  1.61339e+01 -2.27751e+00 -2.19136e+00
       H  1.63548e+01 -1.34613e+00 -2.29712e+00
       H  1.58191e+01 -2.39896e+00 -1.30860e+00
       O  1.18726e+01  1.53616e+00  6.33716e-01
       H  1.21141e+01  2.40187e+00  7.99137e-01
       H  1.10737e+01  1.31432e+00  1.13034e+00
       O -1.10185e+00  6.96423e+00  9.01994e-01
       H -4.62049e-01  7.62805e+00  6.56425e-01
       H -1.96283e+00  7.32280e+00  6.26281e-01
       O  3.54104e+00  4.67720e-02 -1.09177e+01
       H  2.80126e+00  5.56749e-01 -1.07077e+01
       H  4.15710e+00  6.90637e-01 -1.12118e+01
       O  3.28203e+00  1.49026e+01  1.50539e+01
       H  3.43812e+00  1.56741e+01  1.55757e+01
       H  2.39572e+00  1.46018e+01  1.53916e+01
       O  1.59831e+01 -8.80633e-01 -7.58598e+00
       H  1.65714e+01 -1.42127e+00 -7.00314e+00
       H  1.51544e+01 -1.40400e+00 -7.66232e+00
       O  8.31189e+00  1.02951e+00  2.52461e+00
       H  7.54760e+00  7.69668e-01  2.94320e+00
       H  8.97113e+00  1.04976e+00  3.23117e+00
       O  2.30637e+00 -4.08654e+00  9.27923e+00
       H  3.01361e+00 -4.76276e+00  9.38245e+00
       H  1.53904e+00 -4.57519e+00  9.01840e+00
       O  1.82201e+01  1.52751e+01 -4.14200e-01
       H  1.87698e+01  1.59719e+01 -6.14919e-02
       H  1.73541e+01  1.56221e+01 -4.18232e-01
       O  1.41572e+01  6.80427e+00  1.70559e+01
       H  1.34679e+01  7.03226e+00  1.76212e+01
       H  1.49159e+01  7.06099e+00  1.74916e+01
